$DATA1 SOURCE='HSPICE' VERSION='P-2019.06-SP1-1 win64' PARAM_COUNT=0
.TITLE 'digital electronic circuits - ca2'
 static_power_1   static_power_2   static_power_3   static_power_4  
 static_power_5   static_power_6   static_power_7   static_power_8  
 temper           alter#          
  8.755e-07        1.684e-05        4.127e-06        2.014e-05      
  2.195e-05        2.430e-05        5.643e-06        1.157e-05      
   25.0000        1               
