$DATA1 SOURCE='HSPICE' VERSION='P-2019.06-SP1-1 win64' PARAM_COUNT=0
.TITLE 'digital electronic circuits - ca2'
 static_power_1   static_power_2   static_power_3   static_power_4  
 static_power_5   static_power_6   static_power_7   static_power_8  
 temper           alter#          
  8.455e-07        1.666e-05        4.024e-06        1.992e-05      
  2.177e-05        2.391e-05        5.629e-06        1.140e-05      
    0.            1               
