$DATA1 SOURCE='HSPICE' VERSION='P-2019.06-SP1-1 win64' PARAM_COUNT=0
.TITLE 'digital electronic circuits - ca3 - part1'
 avg_power_pseudo_nmos_mux temper           alter#          
  1.701e-05         25.0000        1               
