$DATA1 SOURCE='HSPICE' VERSION='P-2019.06-SP1-1 win64' PARAM_COUNT=0
.TITLE 'digital electronic circuits - ca3 - part1'
 avg_power_static_cmos_mux temper           alter#          
  4.680e-08         25.0000        1               
