 ****** HSPICE -- P-2019.06-SP1-1 win64 (Sep 27 2019) ******                    
  Copyright (c) 1986 - 2022 by Synopsys, Inc. All Rights Reserved.              
  This software and the associated documentation are proprietary
  to Synopsys, Inc. This software may only be used in accordance
  with the terms and conditions of a written license agreement with
  Synopsys, Inc. All other use, reproduction, or distribution of
  this software is strictly prohibited.
  Input File: Not circuit.sp                                                    
  Command line options: C:\synopsys\Hspice_P-2019.06-SP1-1\WIN64\hspice.com -i Not circuit.sp -o C:\Users\IDEAL\Desktop\HSpice files\Not circuit.lis
  Start time: Fri Nov  4 15:18:48 2022
  lic:  
  lic: FLEXlm: SDK_12.3 
  lic: USER:   IDEAL                HOSTNAME: DESKTOP-VQ2IIPN 
  lic: HOSTID: "38002578d45c"       PID:      3552 
  lic: Using FLEXlm license file: 
  lic: 27000@DESKTOP-VQ2IIPN 
  lic: Checkout 1 hspice 
  lic: License/Maintenance for hspice will expire on 30-dec-2030/2030.12 
  lic: 1(in_use)/99(total) FLOATING license(s) on SERVER 27000@DESKTOP-VQ2IIPN 
  lic:   
  **info** (Not circuit.sp:5) DC voltage reset to initial transient source value in source 0:vin. new dc=0.0000D+00
  **warning** (nmos:m2 (Not circuit.sp:10)) Warning:  Acde = 0.27944 may be too small in BSIM4 model with w=9e-08 l=4.5e-08.
  
      
 **info** set option symb=1 internally to help for convergence.
 *****************************************************************
 ******  option summary
 ******
 runlvl  = 3         bypass  = 2.0000    
 **info** dc convergence successful at Newton-Raphson method 
1****** HSPICE -- P-2019.06-SP1-1 win64 (Sep 27 2019) ******                    
 ******  
 notcircuit

 ****** operating point information tnom=  25.000 temp=  25.000 ******
 ****** operating point status is voltage   simulation time is     0.     
    node    =voltage      node    =voltage      node    =voltage

 +0:a       =   0.      0:out     = 999.9625m 0:vdd     =   1.0000 

 ******
 notcircuit

 ****** transient analysis tnom=  25.000 temp=  25.000 ******
 t_rise= 341.1683p  targ=  20.3830n   trig=  20.0418n
 t_fall= 223.6335p  targ= 251.5962p   trig=  27.9627p

          ***** job concluded
 ******  
 notcircuit

 ****** job statistics summary tnom=  25.000 temp=  25.000 ******

  ******  HSPICE Threads Information  ******

  Command Line Threads Count :     1
  Available CPU Count        :     2
  Actual Threads Count       :     1


  ******  Circuit Statistics  ******
  # nodes       =      12 # elements   =       5
  # resistors   =       0 # capacitors =       1 # inductors   =       0
  # mutual_inds =       0 # vccs       =       0 # vcvs        =       0
  # cccs        =       0 # ccvs       =       0 # volt_srcs   =       2
  # curr_srcs   =       0 # diodes     =       0 # bjts        =       0
  # jfets       =       0 # mosfets    =       2 # U elements  =       0
  # T elements  =       0 # W elements =       0 # B elements  =       0
  # S elements  =       0 # P elements =       0 # va device   =       0
  # vector_srcs =       0 # N elements =       0


  ******  Runtime Statistics (seconds)  ******

  analysis           time    # points   tot. iter  conv.iter
  op point           0.00           1           4
  transient          0.01      300001         461         207 rev=        35
  readin             0.02
  errchk             0.00
  setup              0.00
  output             0.00


           peak memory used         61.00 megabytes
           total cpu time            0.04 seconds
           total elapsed time        0.09 seconds
           job started at     15:18:48 11/04/2022
           job ended   at     15:18:48 11/04/2022
           job total runtime         0.09 seconds


  lic: Release hspice token(s) 
 lic: total license checkout elapse time:        0.04(s)
